data/input/matpower/sample_801.m
function mpc = powergrid
mpc.version = '2';
mpc.baseMVA = 100;
mpc.bus = [
	1	1	199.294700	41.801447	0	-400	1	1.056643	7.093004	130	1	1.100000	0.900000;
	2	1	209.014090	-126.786042	0	0	1	1.103577	6.695041	130	1	1.100000	0.900000;
	3	1	307.079321	100.129728	0	0	1	1.038776	3.439504	130	1	1.100000	0.900000;
	4	1	200.405586	78.337355	0	0	1	1.045600	6.875281	130	1	1.100000	0.900000;
	5	1	65.495897	-45.358953	0	0	1	1.030491	-5.828553	130	1	1.100000	0.900000;
	6	1	75.773397	54.605870	0	0	1	1.001275	2.829264	130	1	1.100000	0.900000;
	7	1	165.060094	117.077431	0	0	1	1.013416	-4.422956	130	1	1.100000	0.900000;
	8	1	265.982180	30.654100	0	0	1	1.054787	-7.764797	130	1	1.100000	0.900000;
	9	1	267.415182	105.794112	0	0	1	1.043109	-6.171645	130	1	1.100000	0.900000;
	10	1	162.560679	52.200783	0	0	1	1.106483	-4.079739	220	1	1.100000	0.900000;
	11	1	62.063429	-28.271610	0	0	1	1.114993	-5.460989	220	1	1.100000	0.900000;
	12	1	600.599751	283.680962	0	-400	1	0.968563	17.321657	400	1	1.100000	0.900000;
	13	1	401.236384	-123.600626	0	0	1	1.005909	25.179112	400	1	1.100000	0.900000;
	14	1	681.854111	-143.919950	0	0	1	1.091298	-11.678988	400	1	1.100000	0.900000;
	15	1	484.430886	-161.430581	0	0	1	1.080382	-9.326961	400	1	1.100000	0.900000;
	16	1	0.445922	-0.306061	0	0	1	1.051280	-8.491206	400	1	1.100000	0.900000;
	17	1	379.575502	235.407926	0	0	1	1.025006	-9.202520	400	1	1.100000	0.900000;
	18	1	601.790296	73.406303	0	0	1	1.019029	-7.355094	400	1	1.100000	0.900000;
	19	1	78.293832	43.313156	0	0	1	1.021260	3.474988	400	1	1.100000	0.900000;
	20	1	799.569490	438.907925	0	0	1	0.949976	-19.725453	400	1	1.100000	0.900000;
	21	1	51.741129	31.593907	0	0	1	0.989835	-14.427086	400	1	1.100000	0.900000;
	22	1	229.932584	154.101922	0	0	1	0.978847	-11.501606	400	1	1.100000	0.900000;
	23	1	0	0	0	-100	1	0.982878	7.885064	400	1	1.100000	0.900000;
	24	1	0	0	0	0	1	1.061742	4.654745	130	1	1.100000	0.900000;
	25	1	0	0	0	0	1	1.010018	19.680720	130	1	1.100000	0.900000;
	26	1	0	0	0	0	1	0.978830	8.690148	400	1	1.100000	0.900000;
	27	1	0	0	0	0	1	1.068331	0.631251	400	1	1.100000	0.900000;
	28	1	0	0	0	0	1	1.008442	4.684566	400	1	1.100000	0.900000;
	29	1	0	0	0	0	1	1.073700	-3.913111	400	1	1.100000	0.900000;
	30	1	0	0	0	0	1	1.080382	-9.326961	400	1	1.100000	0.900000;
	31	1	0	0	0	0	1	1.056309	-2.819903	400	1	1.100000	0.900000;
	32	1	0	0	0	0	1	1.070099	-19.507077	400	1	1.100000	0.900000;
	33	1	0	0	0	0	1	1.070099	-19.507077	400	1	1.100000	0.900000;
	34	1	0	0	0	0	1	1.059203	-12.760633	400	1	1.100000	0.900000;
	35	1	0	0	0	0	1	1.010116	-10.225093	400	1	1.100000	0.900000;
	36	1	0	0	0	0	1	1.065404	-7.771211	400	1	1.100000	0.900000;
	37	1	0	0	0	0	1	1.050343	-5.623560	400	1	1.100000	0.900000;
	38	2	0	0	0	0	1	0	6.695041	15	1	1.100000	0.900000;
	39	2	0	0	0	0	1	0	3.439504	15	1	1.100000	0.900000;
	40	2	0	0	0	0	1	0	4.654745	15	1	1.100000	0.900000;
	41	2	0	0	0	0	1	1	22.908803	15	1	1.100000	0.900000;
	42	2	0	0	0	0	1	1	18.132619	15	1	1.100000	0.900000;
	43	2	0	0	0	0	1	1	8.417345	15	1	1.100000	0.900000;
	44	2	0	0	0	0	1	1	11.910494	15	1	1.100000	0.900000;
	45	2	0	0	0	0	1	0	-5.460989	15	1	1.100000	0.900000;
	46	2	0	0	0	0	1	1	14.406787	15	1	1.100000	0.900000;
	47	2	0	0	0	0	1	0	7.885064	15	1	1.100000	0.900000;
	48	2	0	0	0	0	1	0	0.631251	15	1	1.100000	0.900000;
	49	2	0	0	0	0	1	1	10.671019	15	1	1.100000	0.900000;
	50	2	0	0	0	0	1	0	-11.678988	15	1	1.100000	0.900000;
	51	2	0	0	0	0	1	0	-9.326961	15	1	1.100000	0.900000;
	52	3	0	0	0	0	1	1	0	15	1	1.000000	1.000000;
	53	2	0	0	0	0	1	1	-1.864676	15	1	1.100000	0.900000;
	54	2	0	0	0	0	1	1	8.953487	15	1	1.100000	0.900000;
	55	2	0	0	0	0	1	1	8.953487	15	1	1.100000	0.900000;
	56	2	0	0	0	0	1	1	-12.390845	15	1	1.100000	0.900000;
	57	2	0	0	0	0	1	1	-5.785069	15	1	1.100000	0.900000;
	58	2	0	0	0	0	1	0	-11.501606	15	1	1.100000	0.900000;
	59	2	0	0	0	0	1	1	23.099099	15	1	1.100000	0.900000;
	60	2	0	0	0	0	1	1	27.669214	15	1	1.100000	0.900000;
	61	2	0	0	0	0	1	0	-5.828553	15	1	1.100000	0.900000;
];
mpc.gen = [
	52	0	0	1840.000000	-540.000000	1	1	1	2800.000000	10.000000	0	0	0	0	0	0	0	0	0	0	0;
	38	0	0	720.000000	-720.000000	0	100	0	720.000000	10.000000	0	0	0	0	0	0	0	0	0	0	0;
	39	0	0	540.000000	-540.000000	0	100	0	540.000000	10.000000	0	0	0	0	0	0	0	0	0	0	0;
	40	0	0	630.000000	-630.000000	0	100	0	630.000000	10.000000	0	0	0	0	0	0	0	0	0	0	0;
	41	227.499999	0	540.000000	-540.000000	1	100	1	540.000000	10.000000	0	0	0	0	0	0	0	0	0	0	0;
	42	340.196265	0	325.000000	-225.000000	1	100	1	475.000000	10.000000	0	0	0	0	0	0	0	0	0	0	0;
	43	259.999999	0	560.000000	-360.000000	1	100	1	560.000000	10.000000	0	0	0	0	0	0	0	0	0	0	0;
	44	380.000000	0	360.000000	-280.000000	1	100	1	380.000000	10.000000	0	0	0	0	0	0	0	0	0	0	0;
	45	0	0	965.000000	-765.000000	0	100	0	965.000000	10.000000	0	0	0	0	0	0	0	0	0	0	0;
	46	650.000000	0	900.000000	-900.000000	1	100	1	900.000000	10.000000	0	0	0	0	0	0	0	0	0	0	0;
	47	0	0	720.000000	-720.000000	0	100	0	720.000000	10.000000	0	0	0	0	0	0	0	0	0	0	0;
	48	0	0	570.000000	-370.000000	0	100	0	570.000000	10.000000	0	0	0	0	0	0	0	0	0	0	0;
	49	574.999999	0	515.000000	-415.000000	1	100	1	575.000000	10.000000	0	0	0	0	0	0	0	0	0	0	0;
	50	0	0	570.000000	-570.000000	0	100	0	0.000000	-0.000000	0	0	0	0	0	0	0	0	0	0	0;
	51	0	0	630.000000	-630.000000	0	100	0	630.000000	10.000000	0	0	0	0	0	0	0	0	0	0	0;
	53	390.000000	0	580.000000	-540.000000	1	100	1	540.000000	10.000000	0	0	0	0	0	0	0	0	0	0	0;
	54	455.000000	0	630.000000	-630.000000	1	100	1	630.000000	10.000000	0	0	0	0	0	0	0	0	0	0	0;
	55	454.999999	0	630.000000	-630.000000	1	100	1	630.000000	10.000000	0	0	0	0	0	0	0	0	0	0	0;
	56	140.681801	0	540.000000	-540.000000	1	100	1	540.000000	10.000000	0	0	0	0	0	0	0	0	0	0	0;
	57	390.000000	0	540.000000	-540.000000	1	100	1	540.000000	10.000000	0	0	0	0	0	0	0	0	0	0	0;
	58	0	0	540.000000	-540.000000	0	100	0	540.000000	10.000000	0	0	0	0	0	0	0	0	0	0	0;
	59	325.000000	0	520.000000	-450.000000	1	100	1	560.000000	10.000000	0	0	0	0	0	0	0	0	0	0	0;
	60	1311.236384	0	4000.000000	-2050.000000	1	100	1	4500.000000	10.000000	0	0	0	0	0	0	0	0	0	0	0;
	61	0	0	250.000000	-250.000000	0	100	0	0.000000	-0.000000	0	0	0	0	0	0	0	0	0	0	0;
];
mpc.branch = [
	1	3	0.010000	0.070000	0.013804	175.000000	250	250	0	0	1	-360	360;
	1	3	0.010000	0.070000	0.013804	175.000000	250	250	0	0	1	-360	360;
	2	24	0.014024	0.090000	0.018052	175.000000	250	250	0	0	1	-360	360;
	2	24	0.014024	0.090000	0.018052	175.000000	250	250	0	0	1	-360	360;
	3	24	0.006982	0.050000	0.010088	175.000000	250	250	0	0	1	-360	360;
	3	24	0.006982	0.050000	0.010088	175.000000	250	250	0	0	1	-360	360;
	25	4	0.030000	0.200000	0.030263	175.000000	250	250	0	0	1	-360	360;
	25	4	0.030000	0.200000	0.030263	175.000000	250	250	0	0	1	-360	360;
	5	7	0.010000	0.060000	0.012211	175.000000	250	250	0	0	1	-360	360;
	5	7	0.010000	0.060000	0.012211	175.000000	250	250	0	0	1	-360	360;
	5	9	0.014970	0.120000	0.024954	175.000000	250	250	0	0	1	-360	360;
	5	9	0.014970	0.120000	0.024954	175.000000	250	250	0	0	1	-360	360;
	6	8	0.037988	0.280000	0.059995	175.000000	250	250	0	0	1	-360	360;
	6	8	0.037988	0.280000	0.059995	175.000000	250	250	0	0	1	-360	360;
	6	9	0.050000	0.300000	0.059995	175.000000	250	250	0	0	1	-360	360;
	7	8	0.010000	0.080000	0.015928	175.000000	250	250	0	0	1	-360	360;
	7	8	0.010000	0.080000	0.015928	175.000000	250	250	0	0	1	-360	360;
	10	11	0.012004	0.090000	0.015205	250.000000	250	250	0	0	1	-360	360;
	10	11	0.012004	0.090000	0.015205	250.000000	250	250	0	0	1	-360	360;
	26	23	0.001000	0.008000	0.201062	700.000000	250	250	0	0	1	-360	360;
	26	27	0.006000	0.060000	1.799488	700.000000	250	250	0	0	1	-360	360;
	26	28	0.004000	0.040000	1.201344	700.000000	250	250	0	0	1	-360	360;
	26	12	0.005000	0.045000	1.402400	700.000000	250	250	0	0	1	-360	360;
	23	28	0.004000	0.035000	1.050560	700.000000	250	250	0	0	1	-360	360;
	23	12	0.005000	0.050000	1.497920	700.000000	250	250	0	0	1	-360	360;
	27	29	0.004000	0.040000	1.201344	700.000000	250	250	0	0	1	-360	360;
	27	30	0.010000	0.100000	3.000864	700.000000	250	250	0	0	0	-360	360;
	30	15	0	-0.040000	0	700.000000	250	250	0	0	1	-360	360;
	28	31	0.004000	0.040000	1.201344	700.000000	250	250	0	0	1	-360	360;
	28	31	0.004000	0.040000	1.201344	700.000000	250	250	0	0	1	-360	360;
	31	29	0.001000	0.010000	0.301594	700.000000	250	250	0	0	1	-360	360;
	31	32	0.006000	0.080000	2.397664	700.000000	250	250	0	0	1	-360	360;
	32	14	0	-0.040000	0	700.000000	250	250	0	0	1	-360	360;
	31	33	0.006000	0.080000	2.397664	700.000000	250	250	0	0	1	-360	360;
	33	14	0	-0.040000	0	700.000000	250	250	0	0	1	-360	360;
	29	34	0.010000	0.066669	2.000576	700.000000	250	250	0	0	1	-360	360;
	34	15	0	-0.026669	0	700.000000	250	250	0	0	1	-360	360;
	29	35	0.006000	0.080000	2.397664	700.000000	250	250	0	0	1	-360	360;
	35	36	0	-0.030000	0	700.000000	250	250	0	0	1	-360	360;
	14	36	0.003000	0.030000	0.899744	700.000000	250	250	0	0	1	-360	360;
	14	20	0.006000	0.045000	1.301888	700.000000	250	250	0	0	1	-360	360;
	15	16	0.002000	0.015000	0.497632	700.000000	250	250	0	0	1	-360	360;
	15	36	0.002000	0.020000	0.598176	700.000000	250	250	0	0	1	-360	360;
	16	36	0.001000	0.010000	0.301594	700.000000	250	250	0	0	1	-360	360;
	16	17	0.001000	0.010000	0.301594	700.000000	250	250	0	0	1	-360	360;
	16	18	0.002000	0.020000	0.598176	700.000000	250	250	0	0	1	-360	360;
	36	37	0.002000	0.020000	0.598176	700.000000	250	250	0	0	1	-360	360;
	36	37	0.002000	0.020000	0.598176	700.000000	250	250	0	0	1	-360	360;
	37	19	0.004000	0.040000	1.201344	700.000000	250	250	0	0	1	-360	360;
	37	19	0.004000	0.040000	1.201344	700.000000	250	250	0	0	1	-360	360;
	37	21	0.011000	0.080000	2.397664	700.000000	250	250	0	0	1	-360	360;
	17	18	0.001000	0.015000	0.497632	700.000000	250	250	0	0	1	-360	360;
	20	21	0.002000	0.020000	0.598176	700.000000	250	250	0	0	1	-360	360;
	21	22	0.003000	0.030000	0.899744	700.000000	250	250	0	0	1	-360	360;
	21	22	0.003000	0.030000	0.899744	700.000000	250	250	0	0	0	-360	360;
	12	13	0.003000	0.030000	3.000864	700.000000	250	250	0	0	1	-360	360;
	12	13	0.003000	0.030000	3.000864	700.000000	250	250	0	0	1	-360	360;
	2	38	0	0.018750	0	800	250	250	0	0	1	-360	360;
	3	39	0	0.025000	0	600	250	250	0	0	1	-360	360;
	24	40	0	0.021429	0	700	250	250	0	0	1	-360	360;
	25	41	0	0.025000	0	600	250	250	0	0	1	-360	360;
	4	42	0	0.060000	0	1250	250	250	0	0	1	-360	360;
	6	43	0	0.037500	0	400	250	250	0	0	1	-360	360;
	7	44	0	0.075000	0	1200	250	250	0	0	1	-360	360;
	11	45	0	0.017647	0	850	250	250	0	0	1	-360	360;
	26	46	0	0.015000	0	1000	250	250	0	0	1	-360	360;
	23	47	0	0.018750	0	800	250	250	0	0	1	-360	360;
	27	48	0	0.050000	0	300	250	250	0	0	1	-360	360;
	31	49	0	0.042857	0	1350	250	250	0	0	1	-360	360;
	14	50	0	0.017391	0	575	250	250	0	0	1	-360	360;
	15	51	0	0.021429	0	700	250	250	0	0	1	-360	360;
	18	52	0	0.025000	0	600	250	250	0	0	1	-360	360;
	18	53	0	0.025000	0	600	250	250	0	0	1	-360	360;
	19	54	0	0.021429	0	700	250	250	0	0	1	-360	360;
	19	55	0	0.021429	0	700	250	250	0	0	1	-360	360;
	21	56	0	0.025000	0	600	250	250	0	0	1	-360	360;
	22	57	0	0.025000	0	600	250	250	0	0	1	-360	360;
	22	58	0	0.025000	0	600	250	250	0	0	1	-360	360;
	12	59	0	0.030000	0	500	250	250	0	0	1	-360	360;
	13	60	0	0.003333	0	4500	250	250	0	0	1	-360	360;
	26	1	0	0.008000	0	1250	250	250	0.892860	0	1	-360	360;
	23	2	0	0.008000	0	1250	250	250	0.892860	0	1	-360	360;
	28	4	0	0.012000	0	833.300000	250	250	0.934580	0	1	-360	360;
	31	10	0	0.012000	0	833.300000	250	250	0.952380	0	1	-360	360;
	36	8	0	0.010000	0	1000	250	250	0	0	1	-360	360;
	36	8	0	0.010000	0	1000	250	250	0	0	1	-360	360;
	37	9	0	0.010000	0	1000	250	250	0	0	1	-360	360;
	37	9	0	0.010000	0	1000	250	250	0	0	1	-360	360;
	5	61	0	0.025000	0	1200	250	250	0	0	1	-360	360;
];
